data original/sourcebus_22000.trafo_75612178_75612178/LineCodes.dss
New Linecode.1P_Code1 units=km nphases=1 R1=1.247 R0=1e-05 X1=0.2494 X0=1e-05 C1=0.0001 C0=0.0001 BaseFreq=50
New Linecode.1P_Code3 units=km nphases=1 R1=0.7839 R0=1e-05 X1=0.0915 X0=1e-05 C1=0.0001 C0=0.0001 BaseFreq=50
New Linecode.3P_Code0 units=km nphases=3 R1=0.32 R0=1e-05 X1=0.063 X0=1e-05 C1=0.0001 C0=0.0001 BaseFreq=50
New Linecode.3P_Code5 units=km nphases=3 R1=0.7839 R0=1e-05 X1=0.0915 X0=1e-05 C1=0.0001 C0=0.0001 BaseFreq=50
New Linecode.3P_OH_Code2 units=km nphases=3 R1=0.4428 R0=1e-05 X1=0.3782 X0=1e-05 C1=0.0001 C0=0.0001 BaseFreq=50
New Linecode.3P_OH_Code4 units=km nphases=3 R1=0.5875 R0=1e-05 X1=0.3745 X0=1e-05 C1=0.0001 C0=0.0001 BaseFreq=50
